# GHB package for  MODFLOW-2005, generated by Flopy.
      8042         0
      8042         0 # stress period 0
         1         1         1   3.7101302E-01   1.5625000E+01
         1         1         2   3.7284210E-01   1.5625000E+01
         1         1         3   3.7518328E-01   1.5625000E+01
         1         1         4   3.7881002E-01   1.5625000E+01
         1         1         5   3.8312548E-01   1.5625000E+01
         1         1         6   3.8659459E-01   1.5625000E+01
         1         1         7   3.8992593E-01   1.5625000E+01
         1         1         8   3.9229774E-01   1.5625000E+01
         1         1         9   3.9293814E-01   1.5625000E+01
         1         1        10   3.9195952E-01   1.5625000E+01
         1         1        11   3.8981968E-01   1.5625000E+01
         1         1        12   3.8583049E-01   1.5625000E+01
         1         1        13   3.8039804E-01   1.5625000E+01
         1         1        14   3.7450558E-01   1.5625000E+01
         1         1        15   3.6525810E-01   1.5625000E+01
         1         1        16   3.5361791E-01   1.5625000E+01
         1         1        17   3.3769250E-01   1.5625000E+01
         1         1        18   3.2095626E-01   1.5625000E+01
         1         1        19   3.0600151E-01   1.5625000E+01
         1         1        20   2.9328632E-01   1.5625000E+01
         1         1        21   2.8586739E-01   1.5625000E+01
         1         1        22   2.8253606E-01   1.5625000E+01
         1         1        23   2.7927381E-01   1.5625000E+01
         1         1        24   2.7714026E-01   1.5625000E+01
         1         1        25   2.7571076E-01   1.5625000E+01
         1         1        26   2.7598158E-01   1.5625000E+01
         1         1        27   2.7807286E-01   1.5625000E+01
         1         1        28   2.8275228E-01   1.5625000E+01
         1         1        29   2.8946325E-01   1.5625000E+01
         1         1        30   2.9646069E-01   1.5625000E+01
         1         1        31   3.0522078E-01   1.5625000E+01
         1         1        32   3.1267738E-01   1.5625000E+01
         1         1        33   3.2015973E-01   1.5625000E+01
         1         1        34   3.2613894E-01   1.5625000E+01
         1         1        35   3.3011863E-01   1.5625000E+01
         1         1        36   3.3402759E-01   1.5625000E+01
         1         1        37   3.3650434E-01   1.5625000E+01
         1         1        38   3.3741722E-01   1.5625000E+01
         1         1        39   3.3702415E-01   1.5625000E+01
         1         1        40   3.3683231E-01   1.5625000E+01
         1         1        41   3.3678195E-01   1.5625000E+01
         1         1        42   3.3727357E-01   1.5625000E+01
         1         1        43   3.3832163E-01   1.5625000E+01
         1         1        44   3.4031498E-01   1.5625000E+01
         1         1        45   3.4230581E-01   1.5625000E+01
         1         1        46   3.4323943E-01   1.5625000E+01
         1         1        47   3.4322277E-01   1.5625000E+01
         1         1        48   3.4273961E-01   1.5625000E+01
         1         1        49   3.4092849E-01   1.5625000E+01
         1         1        50   3.3787668E-01   1.5625000E+01
         1         1        51   3.3427107E-01   1.5625000E+01
         1         1        52   3.2862201E-01   1.5625000E+01
         1         1        53   3.2238021E-01   1.5625000E+01
         1         1        54   3.1482875E-01   1.5625000E+01
         1         1        55   3.0717942E-01   1.5625000E+01
         1         1        56   3.0031452E-01   1.5625000E+01
         1         1        57   2.9256877E-01   1.5625000E+01
         1         1        58   2.8523919E-01   1.5625000E+01
         1         1        59   2.7857998E-01   1.5625000E+01
         1         1        60   2.7028188E-01   1.5625000E+01
         1         1        61   2.6319438E-01   1.5625000E+01
         1         1        62   2.5540084E-01   1.5625000E+01
         1         1        63   2.4802881E-01   1.5625000E+01
         1         1        64   2.4226196E-01   1.5625000E+01
         1         1        65   2.3650755E-01   1.5625000E+01
         1         1        66   2.3120220E-01   1.5625000E+01
         1         1        67   2.2690135E-01   1.5625000E+01
         1         1        68   2.2220412E-01   1.5625000E+01
         1         1        69   2.1807872E-01   1.5625000E+01
         1         1        70   2.1347478E-01   1.5625000E+01
         1         1        71   2.0881470E-01   1.5625000E+01
         1         1        72   2.0450872E-01   1.5625000E+01
         1         1        73   1.9946533E-01   1.5625000E+01
         1         1        74   1.9362248E-01   1.5625000E+01
         1         1        75   1.8814720E-01   1.5625000E+01
         1         1        76   1.8182632E-01   1.5625000E+01
         1         1        77   1.7660083E-01   1.5625000E+01
         1         1        78   1.7031904E-01   1.5625000E+01
         1         1        79   1.6348502E-01   1.5625000E+01
         1         1        80   1.5756054E-01   1.5625000E+01
         1         1        81   1.5101899E-01   1.5625000E+01
         1         1        82   1.4387047E-01   1.5625000E+01
         1         1        83   1.3756934E-01   1.5625000E+01
         1         1        84   1.3015926E-01   1.5625000E+01
         1         1        85   1.2312929E-01   1.5625000E+01
         1         1        86   1.1471457E-01   1.5625000E+01
         1         1        87   1.0671932E-01   1.5625000E+01
         1         1        88   9.9758297E-02   1.5625000E+01
         1         1        89   9.1676027E-02   1.5625000E+01
         1         1        90   8.3640784E-02   1.5625000E+01
         1         1        91   7.6257870E-02   1.5625000E+01
         1         1        92   6.7927226E-02   1.5625000E+01
         1         1        93   6.1250720E-02   1.5625000E+01
         1         1        94   5.4775801E-02   1.5625000E+01
         1         1        95   4.8163243E-02   1.5625000E+01
         1         1        96   4.1788034E-02   1.5625000E+01
         1         1        97   3.2787766E-02   1.5625000E+01
         1         1        98   2.1605484E-02   1.5625000E+01
         1         1        99   7.2041349E-03   1.5625000E+01
         1         1       100   0.0000000E+00   1.5625000E+01
         1         2         1   3.9131874E-01   1.5625000E+01
         1         2         2   3.9223224E-01   1.5625000E+01
         1         2         3   3.9377925E-01   1.5625000E+01
         1         2         4   3.9649427E-01   1.5625000E+01
         1         2         5   3.9986005E-01   1.5625000E+01
         1         2         6   4.0246692E-01   1.5625000E+01
         1         2         7   4.0471968E-01   1.5625000E+01
         1         2         8   4.0587452E-01   1.5625000E+01
         1         2         9   4.0527600E-01   1.5625000E+01
         1         2        10   4.0269786E-01   1.5625000E+01
         1         2        11   3.9920568E-01   1.5625000E+01
         1         2        12   3.9381164E-01   1.5625000E+01
         1         2        13   3.8712719E-01   1.5625000E+01
         1         2        14   3.8029191E-01   1.5625000E+01
         1         2        15   3.7040851E-01   1.5625000E+01
         1         2        16   3.5952047E-01   1.5625000E+01
         1         2        17   3.4530008E-01   1.5625000E+01
         1         2        18   3.3034074E-01   1.5625000E+01
         1         2        19   3.1725582E-01   1.5625000E+01
         1         2        20   3.0498406E-01   1.5625000E+01
         1         2        21   2.9595625E-01   1.5625000E+01
         1         2        22   2.8992873E-01   1.5625000E+01
         1         2        23   2.8367886E-01   1.5625000E+01
         1         2        24   2.7885526E-01   1.5625000E+01
         1         2        25   2.7431282E-01   1.5625000E+01
         1         2        26   2.7185810E-01   1.5625000E+01
         1         2        27   2.7258566E-01   1.5625000E+01
         1         2        28   2.7661929E-01   1.5625000E+01
         1         2        29   2.8340781E-01   1.5625000E+01
         1         2        30   2.9096323E-01   1.5625000E+01
         1         2        31   3.0090365E-01   1.5625000E+01
         1         2        32   3.0947381E-01   1.5625000E+01
         1         2        33   3.1738999E-01   1.5625000E+01
         1         2        34   3.2219914E-01   1.5625000E+01
         1         2        35   3.2366961E-01   1.5625000E+01
         1         2        36   3.2428131E-01   1.5625000E+01
         1         2        37   3.2447252E-01   1.5625000E+01
         1         2        38   3.2512459E-01   1.5625000E+01
         1         2        39   3.2648832E-01   1.5625000E+01
         1         2        40   3.2718715E-01   1.5625000E+01
         1         2        41   3.2739285E-01   1.5625000E+01
         1         2        42   3.2796147E-01   1.5625000E+01
         1         2        43   3.2942888E-01   1.5625000E+01
         1         2        44   3.3217031E-01   1.5625000E+01
         1         2        45   3.3510524E-01   1.5625000E+01
         1         2        46   3.3697996E-01   1.5625000E+01
         1         2        47   3.3795983E-01   1.5625000E+01
         1         2        48   3.3792537E-01   1.5625000E+01
         1         2        49   3.3592173E-01   1.5625000E+01
         1         2        50   3.3203202E-01   1.5625000E+01
         1         2        51   3.2751960E-01   1.5625000E+01
         1         2        52   3.2120538E-01   1.5625000E+01
         1         2        53   3.1475738E-01   1.5625000E+01
         1         2        54   3.0707252E-01   1.5625000E+01
         1         2        55   2.9929283E-01   1.5625000E+01
         1         2        56   2.9231361E-01   1.5625000E+01
         1         2        57   2.8463030E-01   1.5625000E+01
         1         2        58   2.7719098E-01   1.5625000E+01
         1         2        59   2.7040517E-01   1.5625000E+01
         1         2        60   2.6225215E-01   1.5625000E+01
         1         2        61   2.5549990E-01   1.5625000E+01
         1         2        62   2.4817966E-01   1.5625000E+01
         1         2        63   2.4116187E-01   1.5625000E+01
         1         2        64   2.3549382E-01   1.5625000E+01
         1         2        65   2.2957601E-01   1.5625000E+01
         1         2        66   2.2393784E-01   1.5625000E+01
         1         2        67   2.1928917E-01   1.5625000E+01
         1         2        68   2.1426320E-01   1.5625000E+01
         1         2        69   2.1016535E-01   1.5625000E+01
         1         2        70   2.0557512E-01   1.5625000E+01
         1         2        71   2.0123672E-01   1.5625000E+01
         1         2        72   1.9741262E-01   1.5625000E+01
         1         2        73   1.9260132E-01   1.5625000E+01
         1         2        74   1.8742105E-01   1.5625000E+01
         1         2        75   1.8242586E-01   1.5625000E+01
         1         2        76   1.7619559E-01   1.5625000E+01
         1         2        77   1.7049821E-01   1.5625000E+01
         1         2        78   1.6351669E-01   1.5625000E+01
         1         2        79   1.5613928E-01   1.5625000E+01
         1         2        80   1.4994951E-01   1.5625000E+01
         1         2        81   1.4337912E-01   1.5625000E+01
         1         2        82   1.3602953E-01   1.5625000E+01
         1         2        83   1.2929867E-01   1.5625000E+01
         1         2        84   1.2136019E-01   1.5625000E+01
         1         2        85   1.1408326E-01   1.5625000E+01
         1         2        86   1.0608122E-01   1.5625000E+01
         1         2        87   9.8973334E-02   1.5625000E+01
         1         2        88   9.2952222E-02   1.5625000E+01
         1         2        89   8.6037591E-02   1.5625000E+01
         1         2        90   7.9349808E-02   1.5625000E+01
         1         2        91   7.2757751E-02   1.5625000E+01
         1         2        92   6.4890273E-02   1.5625000E+01
         1         2        93   5.8244649E-02   1.5625000E+01
         1         2        94   5.1067811E-02   1.5625000E+01
         1         2        95   4.2319119E-02   1.5625000E+01
         1         2        96   3.3308342E-02   1.5625000E+01
         1         2        97   2.0636098E-02   1.5625000E+01
         1         2        98   8.5436404E-03   1.5625000E+01
         1         2        99   0.0000000E+00   1.5625000E+01
         1         2       100  -5.9114456E-02   1.5625000E+01
         1         3         1   4.1146296E-01   1.5625000E+01
         1         3         2   4.1130647E-01   1.5625000E+01
         1         3         3   4.1201749E-01   1.5625000E+01
         1         3         4   4.1381824E-01   1.5625000E+01
         1         3         5   4.1628683E-01   1.5625000E+01
         1         3         6   4.1811872E-01   1.5625000E+01
         1         3         7   4.1954640E-01   1.5625000E+01
         1         3         8   4.1964841E-01   1.5625000E+01
         1         3         9   4.1772604E-01   1.5625000E+01
         1         3        10   4.1326037E-01   1.5625000E+01
         1         3        11   4.0821493E-01   1.5625000E+01
         1         3        12   4.0123111E-01   1.5625000E+01
         1         3        13   3.9316049E-01   1.5625000E+01
         1         3        14   3.8537055E-01   1.5625000E+01
         1         3        15   3.7523377E-01   1.5625000E+01
         1         3        16   3.6524683E-01   1.5625000E+01
         1         3        17   3.5298467E-01   1.5625000E+01
         1         3        18   3.4043854E-01   1.5625000E+01
         1         3        19   3.2963046E-01   1.5625000E+01
         1         3        20   3.1817868E-01   1.5625000E+01
         1         3        21   3.0769101E-01   1.5625000E+01
         1         3        22   2.9873151E-01   1.5625000E+01
         1         3        23   2.8896704E-01   1.5625000E+01
         1         3        24   2.8100792E-01   1.5625000E+01
         1         3        25   2.7279979E-01   1.5625000E+01
         1         3        26   2.6693222E-01   1.5625000E+01
         1         3        27   2.6595566E-01   1.5625000E+01
         1         3        28   2.6886651E-01   1.5625000E+01
         1         3        29   2.7536628E-01   1.5625000E+01
         1         3        30   2.8340474E-01   1.5625000E+01
         1         3        31   2.9479757E-01   1.5625000E+01
         1         3        32   3.0516642E-01   1.5625000E+01
         1         3        33   3.1407213E-01   1.5625000E+01
         1         3        34   3.1715932E-01   1.5625000E+01
         1         3        35   3.1434509E-01   1.5625000E+01
         1         3        36   3.0976152E-01   1.5625000E+01
         1         3        37   3.0633971E-01   1.5625000E+01
         1         3        38   3.0606276E-01   1.5625000E+01
         1         3        39   3.0909216E-01   1.5625000E+01
         1         3        40   3.1118256E-01   1.5625000E+01
         1         3        41   3.1272799E-01   1.5625000E+01
         1         3        42   3.1437817E-01   1.5625000E+01
         1         3        43   3.1669590E-01   1.5625000E+01
         1         3        44   3.2035980E-01   1.5625000E+01
         1         3        45   3.2448572E-01   1.5625000E+01
         1         3        46   3.2774130E-01   1.5625000E+01
         1         3        47   3.3052567E-01   1.5625000E+01
         1         3        48   3.3148029E-01   1.5625000E+01
         1         3        49   3.2946876E-01   1.5625000E+01
         1         3        50   3.2468155E-01   1.5625000E+01
         1         3        51   3.1917641E-01   1.5625000E+01
         1         3        52   3.1219923E-01   1.5625000E+01
         1         3        53   3.0547222E-01   1.5625000E+01
         1         3        54   2.9770958E-01   1.5625000E+01
         1         3        55   2.9000524E-01   1.5625000E+01
         1         3        56   2.8307548E-01   1.5625000E+01
         1         3        57   2.7586547E-01   1.5625000E+01
         1         3        58   2.6831132E-01   1.5625000E+01
         1         3        59   2.6122907E-01   1.5625000E+01
         1         3        60   2.5349742E-01   1.5625000E+01
         1         3        61   2.4721988E-01   1.5625000E+01
         1         3        62   2.4034190E-01   1.5625000E+01
         1         3        63   2.3359761E-01   1.5625000E+01
         1         3        64   2.2803748E-01   1.5625000E+01
         1         3        65   2.2204968E-01   1.5625000E+01
         1         3        66   2.1615264E-01   1.5625000E+01
         1         3        67   2.1123983E-01   1.5625000E+01
         1         3        68   2.0597805E-01   1.5625000E+01
         1         3        69   2.0186560E-01   1.5625000E+01
         1         3        70   1.9746031E-01   1.5625000E+01
         1         3        71   1.9335131E-01   1.5625000E+01
         1         3        72   1.8967356E-01   1.5625000E+01
         1         3        73   1.8527044E-01   1.5625000E+01
         1         3        74   1.8099189E-01   1.5625000E+01
         1         3        75   1.7667925E-01   1.5625000E+01
         1         3        76   1.7064610E-01   1.5625000E+01
         1         3        77   1.6433483E-01   1.5625000E+01
         1         3        78   1.5653798E-01   1.5625000E+01
         1         3        79   1.4879557E-01   1.5625000E+01
         1         3        80   1.4253634E-01   1.5625000E+01
         1         3        81   1.3569976E-01   1.5625000E+01
         1         3        82   1.2791085E-01   1.5625000E+01
         1         3        83   1.2075811E-01   1.5625000E+01
         1         3        84   1.1246130E-01   1.5625000E+01
         1         3        85   1.0511068E-01   1.5625000E+01
         1         3        86   9.7458251E-02   1.5625000E+01
         1         3        87   9.1315515E-02   1.5625000E+01
         1         3        88   8.6412586E-02   1.5625000E+01
         1         3        89   8.0563843E-02   1.5625000E+01
         1         3        90   7.4213244E-02   1.5625000E+01
         1         3        91   6.8000533E-02   1.5625000E+01
         1         3        92   6.0322475E-02   1.5625000E+01
         1         3        93   5.3365938E-02   1.5625000E+01
         1         3        94   4.5183573E-02   1.5625000E+01
         1         3        95   3.4112148E-02   1.5625000E+01
         1         3        96   2.1972273E-02   1.5625000E+01
         1         3        97   8.2525946E-03   1.5625000E+01
         1         3        98   0.0000000E+00   1.5625000E+01
         1         3        99  -5.2159846E-02   1.5625000E+01
         1         3       100  -8.9526944E-02   1.5625000E+01
         1         4         1   4.2821023E-01   1.5625000E+01
         1         4         2   4.2718357E-01   1.5625000E+01
         1         4         3   4.2718703E-01   1.5625000E+01
         1         4         4   4.2823485E-01   1.5625000E+01
         1         4         5   4.3003738E-01   1.5625000E+01
         1         4         6   4.3127745E-01   1.5625000E+01
         1         4         7   4.3208805E-01   1.5625000E+01
         1         4         8   4.3129653E-01   1.5625000E+01
         1         4         9   4.2814666E-01   1.5625000E+01
         1         4        10   4.2197227E-01   1.5625000E+01
         1         4        11   4.1551802E-01   1.5625000E+01
         1         4        12   4.0710303E-01   1.5625000E+01
         1         4        13   3.9780235E-01   1.5625000E+01
         1         4        14   3.8921142E-01   1.5625000E+01
         1         4        15   3.7902981E-01   1.5625000E+01
         1         4        16   3.6977771E-01   1.5625000E+01
         1         4        17   3.5903090E-01   1.5625000E+01
         1         4        18   3.4846443E-01   1.5625000E+01
         1         4        19   3.3957526E-01   1.5625000E+01
         1         4        20   3.2910311E-01   1.5625000E+01
         1         4        21   3.1767285E-01   1.5625000E+01
         1         4        22   3.0628461E-01   1.5625000E+01
         1         4        23   2.9367170E-01   1.5625000E+01
         1         4        24   2.8323621E-01   1.5625000E+01
         1         4        25   2.7219990E-01   1.5625000E+01
         1         4        26   2.6346466E-01   1.5625000E+01
         1         4        27   2.6014280E-01   1.5625000E+01
         1         4        28   2.6090649E-01   1.5625000E+01
         1         4        29   2.6625848E-01   1.5625000E+01
         1         4        30   2.7436653E-01   1.5625000E+01
         1         4        31   2.8694651E-01   1.5625000E+01
         1         4        32   2.9926196E-01   1.5625000E+01
         1         4        33   3.0957237E-01   1.5625000E+01
         1         4        34   3.1095544E-01   1.5625000E+01
         1         4        35   3.0317986E-01   1.5625000E+01
         1         4        36   2.9321662E-01   1.5625000E+01
         1         4        37   2.8594264E-01   1.5625000E+01
         1         4        38   2.8426132E-01   1.5625000E+01
         1         4        39   2.8847927E-01   1.5625000E+01
         1         4        40   2.9219609E-01   1.5625000E+01
         1         4        41   2.9583102E-01   1.5625000E+01
         1         4        42   2.9936165E-01   1.5625000E+01
         1         4        43   3.0284613E-01   1.5625000E+01
         1         4        44   3.0749226E-01   1.5625000E+01
         1         4        45   3.1272888E-01   1.5625000E+01
         1         4        46   3.1726491E-01   1.5625000E+01
         1         4        47   3.2198253E-01   1.5625000E+01
         1         4        48   3.2464439E-01   1.5625000E+01
         1         4        49   3.2253042E-01   1.5625000E+01
         1         4        50   3.1650802E-01   1.5625000E+01
         1         4        51   3.1022778E-01   1.5625000E+01
         1         4        52   3.0287537E-01   1.5625000E+01
         1         4        53   2.9599983E-01   1.5625000E+01
         1         4        54   2.8823602E-01   1.5625000E+01
         1         4        55   2.8068879E-01   1.5625000E+01
         1         4        56   2.7389964E-01   1.5625000E+01
         1         4        57   2.6704180E-01   1.5625000E+01
         1         4        58   2.5974578E-01   1.5625000E+01
         1         4        59   2.5273451E-01   1.5625000E+01
         1         4        60   2.4535403E-01   1.5625000E+01
         1         4        61   2.3955002E-01   1.5625000E+01
         1         4        62   2.3303038E-01   1.5625000E+01
         1         4        63   2.2643064E-01   1.5625000E+01
         1         4        64   2.2094305E-01   1.5625000E+01
         1         4        65   2.1490079E-01   1.5625000E+01
         1         4        66   2.0879664E-01   1.5625000E+01
         1         4        67   2.0370504E-01   1.5625000E+01
         1         4        68   1.9835049E-01   1.5625000E+01
         1         4        69   1.9420163E-01   1.5625000E+01
         1         4        70   1.8992783E-01   1.5625000E+01
         1         4        71   1.8585522E-01   1.5625000E+01
         1         4        72   1.8214327E-01   1.5625000E+01
         1         4        73   1.7824291E-01   1.5625000E+01
         1         4        74   1.7481302E-01   1.5625000E+01
         1         4        75   1.7123038E-01   1.5625000E+01
         1         4        76   1.6551197E-01   1.5625000E+01
         1         4        77   1.5840550E-01   1.5625000E+01
         1         4        78   1.4990517E-01   1.5625000E+01
         1         4        79   1.4190646E-01   1.5625000E+01
         1         4        80   1.3555880E-01   1.5625000E+01
         1         4        81   1.2821241E-01   1.5625000E+01
         1         4        82   1.2034967E-01   1.5625000E+01
         1         4        83   1.1323896E-01   1.5625000E+01
         1         4        84   1.0497984E-01   1.5625000E+01
         1         4        85   9.7667277E-02   1.5625000E+01
         1         4        86   9.0292819E-02   1.5625000E+01
         1         4        87   8.5030913E-02   1.5625000E+01
         1         4        88   8.0864377E-02   1.5625000E+01
         1         4        89   7.5070746E-02   1.5625000E+01
         1         4        90   6.8799473E-02   1.5625000E+01
         1         4        91   6.3196026E-02   1.5625000E+01
         1         4        92   5.5513222E-02   1.5625000E+01
         1         4        93   4.7253963E-02   1.5625000E+01
         1         4        94   3.6912784E-02   1.5625000E+01
         1         4        95   2.3418406E-02   1.5625000E+01
         1         4        96   1.0358355E-02   1.5625000E+01
         1         4        97   0.0000000E+00   1.5625000E+01
         1         4        98  -4.2527761E-02   1.5625000E+01
         1         4        99  -8.1026241E-02   1.5625000E+01
         1         4       100  -1.1093751E-01   1.5625000E+01
         1         5         1   4.4526574E-01   1.5625000E+01
         1         5         2   4.4356471E-01   1.5625000E+01
         1         5         3   4.4302016E-01   1.5625000E+01
         1         5         4   4.4343603E-01   1.5625000E+01
         1         5         5   4.4456869E-01   1.5625000E+01
         1         5         6   4.4516513E-01   1.5625000E+01
         1         5         7   4.4515705E-01   1.5625000E+01
         1         5         8   4.4324687E-01   1.5625000E+01
         1         5         9   4.3870509E-01   1.5625000E+01
         1         5        10   4.3080339E-01   1.5625000E+01
         1         5        11   4.2287055E-01   1.5625000E+01
         1         5        12   4.1291589E-01   1.5625000E+01
         1         5        13   4.0227878E-01   1.5625000E+01
         1         5        14   3.9280176E-01   1.5625000E+01
         1         5        15   3.8256735E-01   1.5625000E+01
         1         5        16   3.7395346E-01   1.5625000E+01
         1         5        17   3.6448017E-01   1.5625000E+01
         1         5        18   3.5559294E-01   1.5625000E+01
         1         5        19   3.4824771E-01   1.5625000E+01
         1         5        20   3.3861023E-01   1.5625000E+01
         1         5        21   3.2643807E-01   1.5625000E+01
         1         5        22   3.1318194E-01   1.5625000E+01
         1         5        23   2.9818875E-01   1.5625000E+01
         1         5        24   2.8563827E-01   1.5625000E+01
         1         5        25   2.7216336E-01   1.5625000E+01
         1         5        26   2.6055381E-01   1.5625000E+01
         1         5        27   2.5353023E-01   1.5625000E+01
         1         5        28   2.5011176E-01   1.5625000E+01
         1         5        29   2.5269362E-01   1.5625000E+01
         1         5        30   2.6026672E-01   1.5625000E+01
         1         5        31   2.7328271E-01   1.5625000E+01
         1         5        32   2.8673887E-01   1.5625000E+01
         1         5        33   2.9802662E-01   1.5625000E+01
         1         5        34   2.9766229E-01   1.5625000E+01
         1         5        35   2.8461632E-01   1.5625000E+01
         1         5        36   2.6918292E-01   1.5625000E+01
         1         5        37   2.5775433E-01   1.5625000E+01
         1         5        38   2.5436556E-01   1.5625000E+01
         1         5        39   2.6028097E-01   1.5625000E+01
         1         5        40   2.6617149E-01   1.5625000E+01
         1         5        41   2.7278441E-01   1.5625000E+01
         1         5        42   2.7918282E-01   1.5625000E+01
         1         5        43   2.8436822E-01   1.5625000E+01
         1         5        44   2.9027539E-01   1.5625000E+01
         1         5        45   2.9662895E-01   1.5625000E+01
         1         5        46   3.0226916E-01   1.5625000E+01
         1         5        47   3.0859658E-01   1.5625000E+01
         1         5        48   3.1283885E-01   1.5625000E+01
         1         5        49   3.1088880E-01   1.5625000E+01
         1         5        50   3.0402443E-01   1.5625000E+01
         1         5        51   2.9747939E-01   1.5625000E+01
         1         5        52   2.9019415E-01   1.5625000E+01
         1         5        53   2.8352493E-01   1.5625000E+01
         1         5        54   2.7598849E-01   1.5625000E+01
         1         5        55   2.6860031E-01   1.5625000E+01
         1         5        56   2.6223409E-01   1.5625000E+01
         1         5        57   2.5588411E-01   1.5625000E+01
         1         5        58   2.4894758E-01   1.5625000E+01
         1         5        59   2.4209075E-01   1.5625000E+01
         1         5        60   2.3549627E-01   1.5625000E+01
         1         5        61   2.3012799E-01   1.5625000E+01
         1         5        62   2.2397347E-01   1.5625000E+01
         1         5        63   2.1766400E-01   1.5625000E+01
         1         5        64   2.1230932E-01   1.5625000E+01
         1         5        65   2.0615569E-01   1.5625000E+01
         1         5        66   1.9969934E-01   1.5625000E+01
         1         5        67   1.9433492E-01   1.5625000E+01
         1         5        68   1.8896869E-01   1.5625000E+01
         1         5        69   1.8485342E-01   1.5625000E+01
         1         5        70   1.8024333E-01   1.5625000E+01
         1         5        71   1.7595477E-01   1.5625000E+01
         1         5        72   1.7254078E-01   1.5625000E+01
         1         5        73   1.6920702E-01   1.5625000E+01
         1         5        74   1.6643958E-01   1.5625000E+01