# WEL package for  MODFLOW-2005, generated by Flopy.
        16         0
        16         0 # stress period 0
         1        61        33   0.0000000E+00
         1        59        38   0.0000000E+00
         1        59        43   0.0000000E+00
         1        57        43   0.0000000E+00
         1        54        36   0.0000000E+00
         1        52        38   0.0000000E+00
         1        49        48   0.0000000E+00
         1        45        36   0.0000000E+00
         1        44        38   0.0000000E+00
         1        43        40   0.0000000E+00
         1        43        49   0.0000000E+00
         1        40        39   0.0000000E+00
         1        38        43   0.0000000E+00
         1        37        38   0.0000000E+00
         1        31        47   0.0000000E+00
         1        27        41   0.0000000E+00
        16         0 # stress period 1
         1        61        33  -2.0000000E+02
         1        59        38  -2.0000000E+02
         1        59        43  -2.0000000E+02
         1        57        43  -2.0000000E+02
         1        54        36  -2.0000000E+02
         1        52        38  -2.0000000E+02
         1        49        48  -2.0000000E+02
         1        45        36  -2.0000000E+02
         1        44        38  -2.0000000E+02
         1        43        40  -2.0000000E+02
         1        43        49  -2.0000000E+02
         1        40        39  -2.0000000E+02
         1        38        43  -2.0000000E+02
         1        37        38  -2.0000000E+02
         1        31        47  -2.0000000E+02
         1        27        41  -2.0000000E+02
        -1         0 # stress period 2
