# WEL package for  MODFLOW-2005, generated by Flopy.
        16         0
        16         0 # stress period 0
         1        61        33   0.0000000E+00
         1        59        38   0.0000000E+00
         2        59        43   0.0000000E+00
         2        57        43   0.0000000E+00
         2        54        36   0.0000000E+00
         2        52        38   0.0000000E+00
         2        49        48   0.0000000E+00
         2        45        36   0.0000000E+00
         2        44        38   0.0000000E+00
         1        43        40   0.0000000E+00
         2        43        49   0.0000000E+00
         2        40        39   0.0000000E+00
         3        38        43   0.0000000E+00
         1        37        38   0.0000000E+00
         2        31        47   0.0000000E+00
         2        27        41   0.0000000E+00
        16         0 # stress period 1
         1        61        33  -7.2700000E+00
         1        59        38  -7.2700000E+00
         2        59        43  -7.2700000E+00
         2        57        43  -7.2700000E+00
         2        54        36  -7.2700000E+00
         2        52        38  -7.2700000E+00
         2        49        48   0.0000000E+00
         2        45        36   0.0000000E+00
         2        44        38  -7.2700000E+00
         1        43        40  -7.2700000E+00
         2        43        49  -7.2700000E+00
         2        40        39  -1.4500000E+00
         3        38        43  -1.4850000E+01
         1        37        38  -7.2700000E+00
         2        31        47  -7.2700000E+00
         2        27        41  -7.2700000E+00
        16         0 # stress period 2
         1        61        33   0.0000000E+00
         1        59        38   0.0000000E+00
         2        59        43   0.0000000E+00
         2        57        43   0.0000000E+00
         2        54        36   0.0000000E+00
         2        52        38   0.0000000E+00
         2        49        48   0.0000000E+00
         2        45        36   0.0000000E+00
         2        44        38   0.0000000E+00
         1        43        40   0.0000000E+00
         2        43        49   0.0000000E+00
         2        40        39   0.0000000E+00
         3        38        43   0.0000000E+00
         1        37        38   0.0000000E+00
         2        31        47   0.0000000E+00
         2        27        41   0.0000000E+00
        16         0 # stress period 3
         1        61        33  -7.2700000E+00
         1        59        38  -7.2700000E+00
         2        59        43  -7.2700000E+00
         2        57        43  -7.2700000E+00
         2        54        36  -7.2700000E+00
         2        52        38  -7.2700000E+00
         2        49        48   0.0000000E+00
         2        45        36   0.0000000E+00
         2        44        38  -7.2700000E+00
         1        43        40  -7.2700000E+00
         2        43        49  -7.2700000E+00
         2        40        39  -1.4500000E+00
         3        38        43  -1.4850000E+01
         1        37        38  -7.2700000E+00
         2        31        47  -7.2700000E+00
         2        27        41  -7.2700000E+00
        16         0 # stress period 4
         1        61        33   0.0000000E+00
         1        59        38   0.0000000E+00
         2        59        43   0.0000000E+00
         2        57        43   0.0000000E+00
         2        54        36   0.0000000E+00
         2        52        38   0.0000000E+00
         2        49        48   0.0000000E+00
         2        45        36   0.0000000E+00
         2        44        38   0.0000000E+00
         1        43        40   0.0000000E+00
         2        43        49   0.0000000E+00
         2        40        39   0.0000000E+00
         3        38        43   0.0000000E+00
         1        37        38   0.0000000E+00
         2        31        47   0.0000000E+00
         2        27        41   0.0000000E+00
        16         0 # stress period 5
         1        61        33  -7.2700000E+00
         1        59        38  -7.2700000E+00
         2        59        43  -7.2700000E+00
         2        57        43  -7.2700000E+00
         2        54        36  -7.2700000E+00
         2        52        38  -7.2700000E+00
         2        49        48   0.0000000E+00
         2        45        36   0.0000000E+00
         2        44        38  -7.2700000E+00
         1        43        40  -7.2700000E+00
         2        43        49  -7.2700000E+00
         2        40        39  -1.4500000E+00
         3        38        43  -1.4850000E+01
         1        37        38  -7.2700000E+00
         2        31        47  -7.2700000E+00
         2        27        41  -7.2700000E+00
