# SWI2 package for  MODFLOW-2005, generated by Flopy.
# Dataset 1
         1         1         1        55         0      1051
# Dataset 2a
         1         0         3
# Dataset 3a
         0.005         0.005
# Dataset 4
INTERNAL               1   (2E15.6) -1 #nu                            
   0.000000E+00   2.500000E-02
# Dataset 5
INTERNAL               1 (100E15.6) -1 #zeta_1 layer 1                
  -1.000000E+01  -1.000000E+01  -1.000000E+01  -1.000000E+01  -1.000000E+01  -1.000000E+01  -1.000000E+01  -1.000000E+01  -1.000000E+01  -1.000000E+01  -1.000000E+01  -1.000000E+01  -1.000000E+01  -1.000000E+01  -1.000000E+01  -1.000000E+01  -1.000000E+01  -1.000000E+01  -1.000000E+01  -1.000000E+01  -1.000000E+01  -1.000000E+01  -1.000000E+01  -1.000000E+01  -1.000000E+01  -1.000000E+01  -1.000000E+01  -1.000000E+01  -1.000000E+01  -1.000000E+01  -1.000000E+01  -1.000000E+01  -1.000000E+01  -1.000000E+01  -1.000000E+01  -1.000000E+01  -1.000000E+01  -1.000000E+01  -1.000000E+01  -1.000000E+01  -1.000000E+01  -1.000000E+01  -1.000000E+01  -1.000000E+01  -1.000000E+01  -1.000000E+01  -1.000000E+01  -1.000000E+01  -1.000000E+01  -1.000000E+01  -1.000000E+01  -1.000000E+01  -1.000000E+01  -1.000000E+01  -1.000000E+01  -1.000000E+01  -1.000000E+01  -1.000000E+01  -1.000000E+01  -1.000000E+01  -1.000000E+01  -1.000000E+01  -1.000000E+01  -1.000000E+01  -1.000000E+01  -1.000000E+01  -1.000000E+01  -1.000000E+01  -1.000000E+01  -1.000000E+01  -1.000000E+01  -1.000000E+01  -1.000000E+01  -1.000000E+01  -1.000000E+01  -1.000000E+01  -1.000000E+01  -1.000000E+01  -1.000000E+01  -1.000000E+01  -1.000000E+01  -1.000000E+01  -1.000000E+01  -1.000000E+01  -1.000000E+01  -1.000000E+01  -1.000000E+01  -1.000000E+01  -1.000000E+01  -1.000000E+01  -1.000000E+01  -1.000000E+01  -1.000000E+01  -1.000000E+01  -1.000000E+01  -1.000000E+01  -1.000000E+01  -1.000000E+01  -1.000000E+01  -1.000000E+01
  -1.000000E+01  -1.000000E+01  -1.000000E+01  -1.000000E+01  -1.000000E+01  -1.000000E+01  -1.000000E+01  -1.000000E+01  -1.000000E+01  -1.000000E+01  -1.000000E+01  -1.000000E+01  -1.000000E+01  -1.000000E+01  -1.000000E+01  -1.000000E+01  -1.000000E+01  -1.000000E+01  -1.000000E+01  -1.000000E+01  -1.000000E+01  -1.000000E+01  -1.000000E+01  -1.000000E+01  -1.000000E+01  -1.000000E+01  -1.000000E+01  -1.000000E+01  -1.000000E+01  -1.000000E+01  -1.000000E+01  -1.000000E+01  -1.000000E+01  -1.000000E+01  -1.000000E+01  -1.000000E+01  -1.000000E+01  -1.000000E+01  -1.000000E+01  -1.000000E+01  -1.000000E+01  -1.000000E+01  -1.000000E+01  -1.000000E+01  -1.000000E+01  -1.000000E+01  -1.000000E+01  -1.000000E+01  -1.000000E+01  -1.000000E+01  -1.000000E+01  -1.000000E+01  -1.000000E+01  -1.000000E+01  -1.000000E+01  -1.000000E+01  -1.000000E+01  -1.000000E+01  -1.000000E+01  -1.000000E+01  -1.000000E+01  -1.000000E+01  -1.000000E+01  -1.000000E+01  -1.000000E+01  -1.000000E+01  -1.000000E+01  -1.000000E+01  -1.000000E+01  -1.000000E+01  -1.000000E+01  -1.000000E+01  -1.000000E+01  -1.000000E+01  -1.000000E+01  -1.000000E+01  -1.000000E+01  -1.000000E+01  -1.000000E+01  -1.000000E+01  -1.000000E+01  -1.000000E+01  -1.000000E+01  -1.000000E+01  -1.000000E+01  -1.000000E+01  -1.000000E+01  -1.000000E+01  -1.000000E+01  -1.000000E+01  -1.000000E+01  -1.000000E+01  -1.000000E+01  -1.000000E+01  -1.000000E+01  -1.000000E+01  -1.000000E+01  -1.000000E+01  -1.000000E+01  -1.100000E+01
  -1.000000E+01  -1.000000E+01  -1.000000E+01  -1.000000E+01  -1.000000E+01  -1.000000E+01  -1.000000E+01  -1.000000E+01  -1.000000E+01  -1.000000E+01  -1.000000E+01  -1.000000E+01  -1.000000E+01  -1.000000E+01  -1.000000E+01  -1.000000E+01  -1.000000E+01  -1.000000E+01  -1.000000E+01  -1.000000E+01  -1.000000E+01  -1.000000E+01  -1.000000E+01  -1.000000E+01  -1.000000E+01  -1.000000E+01  -1.000000E+01  -1.000000E+01  -1.000000E+01  -1.000000E+01  -1.000000E+01  -1.000000E+01  -1.000000E+01  -1.000000E+01  -1.000000E+01  -1.000000E+01  -1.000000E+01  -1.000000E+01  -1.000000E+01  -1.000000E+01  -1.000000E+01  -1.000000E+01  -1.000000E+01  -1.000000E+01  -1.000000E+01  -1.000000E+01  -1.000000E+01  -1.000000E+01  -1.000000E+01  -1.000000E+01  -1.000000E+01  -1.000000E+01  -1.000000E+01  -1.000000E+01  -1.000000E+01  -1.000000E+01  -1.000000E+01  -1.000000E+01  -1.000000E+01  -1.000000E+01  -1.000000E+01  -1.000000E+01  -1.000000E+01  -1.000000E+01  -1.000000E+01  -1.000000E+01  -1.000000E+01  -1.000000E+01  -1.000000E+01  -1.000000E+01  -1.000000E+01  -1.000000E+01  -1.000000E+01  -1.000000E+01  -1.000000E+01  -1.000000E+01  -1.000000E+01  -1.000000E+01  -1.000000E+01  -1.000000E+01  -1.000000E+01  -1.000000E+01  -1.000000E+01  -1.000000E+01  -1.000000E+01  -1.000000E+01  -1.000000E+01  -1.000000E+01  -1.000000E+01  -1.000000E+01  -1.000000E+01  -1.000000E+01  -1.000000E+01  -1.000000E+01  -1.000000E+01  -1.000000E+01  -1.000000E+01  -1.000000E+01  -1.100000E+01  -1.100000E+01
  -1.000000E+01  -1.000000E+01  -1.000000E+01  -1.000000E+01  -1.000000E+01  -1.000000E+01  -1.000000E+01  -1.000000E+01  -1.000000E+01  -1.000000E+01  -1.000000E+01  -1.000000E+01  -1.000000E+01  -1.000000E+01  -1.000000E+01  -1.000000E+01  -1.000000E+01  -1.000000E+01  -1.000000E+01  -1.000000E+01  -1.000000E+01  -1.000000E+01  -1.000000E+01  -1.000000E+01  -1.000000E+01  -1.000000E+01  -1.000000E+01  -1.000000E+01  -1.000000E+01  -1.000000E+01  -1.000000E+01  -1.000000E+01  -1.000000E+01  -1.000000E+01  -1.000000E+01  -1.000000E+01  -1.000000E+01  -1.000000E+01  -1.000000E+01  -1.000000E+01  -1.000000E+01  -1.000000E+01  -1.000000E+01  -1.000000E+01  -1.000000E+01  -1.000000E+01  -1.000000E+01  -1.000000E+01  -1.000000E+01  -1.000000E+01  -1.000000E+01  -1.000000E+01  -1.000000E+01  -1.000000E+01  -1.000000E+01  -1.000000E+01  -1.000000E+01  -1.000000E+01  -1.000000E+01  -1.000000E+01  -1.000000E+01  -1.000000E+01  -1.000000E+01  -1.000000E+01  -1.000000E+01  -1.000000E+01  -1.000000E+01  -1.000000E+01  -1.000000E+01  -1.000000E+01  -1.000000E+01  -1.000000E+01  -1.000000E+01  -1.000000E+01  -1.000000E+01  -1.000000E+01  -1.000000E+01  -1.000000E+01  -1.000000E+01  -1.000000E+01  -1.000000E+01  -1.000000E+01  -1.000000E+01  -1.000000E+01  -1.000000E+01  -1.000000E+01  -1.000000E+01  -1.000000E+01  -1.000000E+01  -1.000000E+01  -1.000000E+01  -1.000000E+01  -1.000000E+01  -1.000000E+01  -1.000000E+01  -1.000000E+01  -1.000000E+01  -1.100000E+01  -1.100000E+01  -1.100000E+01
  -1.000000E+01  -1.000000E+01  -1.000000E+01  -1.000000E+01  -1.000000E+01  -1.000000E+01  -1.000000E+01  -1.000000E+01  -1.000000E+01  -1.000000E+01  -1.000000E+01  -1.000000E+01  -1.000000E+01  -1.000000E+01  -1.000000E+01  -1.000000E+01  -1.000000E+01  -1.000000E+01  -1.000000E+01  -1.000000E+01  -1.000000E+01  -1.000000E+01  -1.000000E+01  -1.000000E+01  -1.000000E+01  -1.000000E+01  -1.000000E+01  -1.000000E+01  -1.000000E+01  -1.000000E+01  -1.000000E+01  -1.000000E+01  -1.000000E+01  -1.000000E+01  -1.000000E+01  -1.000000E+01  -1.000000E+01  -1.000000E+01  -1.000000E+01  -1.000000E+01  -1.000000E+01  -1.000000E+01  -1.000000E+01  -1.000000E+01  -1.000000E+01  -1.000000E+01  -1.000000E+01  -1.000000E+01  -1.000000E+01  -1.000000E+01  -1.000000E+01  -1.000000E+01  -1.000000E+01  -1.000000E+01  -1.000000E+01  -1.000000E+01  -1.000000E+01  -1.000000E+01  -1.000000E+01  -1.000000E+01  -1.000000E+01  -1.000000E+01  -1.000000E+01  -1.000000E+01  -1.000000E+01  -1.000000E+01  -1.000000E+01  -1.000000E+01  -1.000000E+01  -1.000000E+01  -1.000000E+01  -1.000000E+01  -1.000000E+01  -1.000000E+01  -1.000000E+01  -1.000000E+01  -1.000000E+01  -1.000000E+01  -1.000000E+01  -1.000000E+01  -1.000000E+01  -1.000000E+01  -1.000000E+01  -1.000000E+01  -1.000000E+01  -1.000000E+01  -1.000000E+01  -1.000000E+01  -1.000000E+01  -1.000000E+01  -1.000000E+01  -1.000000E+01  -1.000000E+01  -1.000000E+01  -1.000000E+01  -1.000000E+01  -1.100000E+01  -1.100000E+01  -1.100000E+01  -1.100000E+01
  -1.000000E+01  -1.000000E+01  -1.000000E+01  -1.000000E+01  -1.000000E+01  -1.000000E+01  -1.000000E+01  -1.000000E+01  -1.000000E+01  -1.000000E+01  -1.000000E+01  -1.000000E+01  -1.000000E+01  -1.000000E+01  -1.000000E+01  -1.000000E+01  -1.000000E+01  -1.000000E+01  -1.000000E+01  -1.000000E+01  -1.000000E+01  -1.000000E+01  -1.000000E+01  -1.000000E+01  -1.000000E+01  -1.000000E+01  -1.000000E+01  -1.000000E+01  -1.000000E+01  -1.000000E+01  -1.000000E+01  -1.000000E+01  -1.000000E+01  -1.000000E+01  -1.000000E+01  -1.000000E+01  -1.000000E+01  -1.000000E+01  -1.000000E+01  -1.000000E+01  -1.000000E+01  -1.000000E+01  -1.000000E+01  -1.000000E+01  -1.000000E+01  -1.000000E+01  -1.000000E+01  -1.000000E+01  -1.000000E+01  -1.000000E+01  -1.000000E+01  -1.000000E+01  -1.000000E+01  -1.000000E+01  -1.000000E+01  -1.000000E+01  -1.000000E+01  -1.000000E+01  -1.000000E+01  -1.000000E+01  -1.000000E+01  -1.000000E+01  -1.000000E+01  -1.000000E+01  -1.000000E+01  -1.000000E+01  -1.000000E+01  -1.000000E+01  -1.000000E+01  -1.000000E+01  -1.000000E+01  -1.000000E+01  -1.000000E+01  -1.000000E+01  -1.000000E+01  -1.000000E+01  -1.000000E+01  -1.000000E+01  -1.000000E+01  -1.000000E+01  -1.000000E+01  -1.000000E+01  -1.000000E+01  -1.000000E+01  -1.000000E+01  -1.000000E+01  -1.000000E+01  -1.000000E+01  -1.000000E+01  -1.000000E+01  -1.000000E+01  -1.000000E+01  -1.000000E+01  -1.000000E+01  -1.000000E+01  -1.100000E+01  -1.100000E+01  -1.100000E+01  -1.100000E+01  -1.100000E+01
  -1.000000E+01  -1.000000E+01  -1.000000E+01  -1.000000E+01  -1.000000E+01  -1.000000E+01  -1.000000E+01  -1.000000E+01  -1.000000E+01  -1.000000E+01  -1.000000E+01  -1.000000E+01  -1.000000E+01  -1.000000E+01  -1.000000E+01  -1.000000E+01  -1.000000E+01  -1.000000E+01  -1.000000E+01  -1.000000E+01  -1.000000E+01  -1.000000E+01  -1.000000E+01  -1.000000E+01  -1.000000E+01  -1.000000E+01  -1.000000E+01  -1.000000E+01  -1.000000E+01  -1.000000E+01  -1.000000E+01  -1.000000E+01  -1.000000E+01  -1.000000E+01  -1.000000E+01  -1.000000E+01  -1.000000E+01  -1.000000E+01  -1.000000E+01  -1.000000E+01  -1.000000E+01  -1.000000E+01  -1.000000E+01  -1.000000E+01  -1.000000E+01  -1.000000E+01  -1.000000E+01  -1.000000E+01  -1.000000E+01  -1.000000E+01  -1.000000E+01  -1.000000E+01  -1.000000E+01  -1.000000E+01  -1.000000E+01  -1.000000E+01  -1.000000E+01  -1.000000E+01  -1.000000E+01  -1.000000E+01  -1.000000E+01  -1.000000E+01  -1.000000E+01  -1.000000E+01  -1.000000E+01  -1.000000E+01  -1.000000E+01  -1.000000E+01  -1.000000E+01  -1.000000E+01  -1.000000E+01  -1.000000E+01  -1.000000E+01  -1.000000E+01  -1.000000E+01  -1.000000E+01  -1.000000E+01  -1.000000E+01  -1.000000E+01  -1.000000E+01  -1.000000E+01  -1.000000E+01  -1.000000E+01  -1.000000E+01  -1.000000E+01  -1.000000E+01  -1.000000E+01  -1.000000E+01  -1.000000E+01  -1.000000E+01  -1.000000E+01  -1.000000E+01  -1.000000E+01  -1.000000E+01  -1.000000E+01  -1.100000E+01  -1.100000E+01  -1.100000E+01  -1.100000E+01  -1.100000E+01
  -1.000000E+01  -1.000000E+01  -1.000000E+01  -1.000000E+01  -1.000000E+01  -1.000000E+01  -1.000000E+01  -1.000000E+01  -1.000000E+01  -1.000000E+01  -1.000000E+01  -1.000000E+01  -1.000000E+01  -1.000000E+01  -1.000000E+01  -1.000000E+01  -1.000000E+01  -1.000000E+01  -1.000000E+01  -1.000000E+01  -1.000000E+01  -1.000000E+01  -1.000000E+01  -1.000000E+01  -1.000000E+01  -1.000000E+01  -1.000000E+01  -1.000000E+01  -1.000000E+01  -1.000000E+01  -1.000000E+01  -1.000000E+01  -1.000000E+01  -1.000000E+01  -1.000000E+01  -1.000000E+01  -1.000000E+01  -1.000000E+01  -1.000000E+01  -1.000000E+01  -1.000000E+01  -1.000000E+01  -1.000000E+01  -1.000000E+01  -1.000000E+01  -1.000000E+01  -1.000000E+01  -1.000000E+01  -1.000000E+01  -1.000000E+01  -1.000000E+01  -1.000000E+01  -1.000000E+01  -1.000000E+01  -1.000000E+01  -1.000000E+01  -1.000000E+01  -1.000000E+01  -1.000000E+01  -1.000000E+01  -1.000000E+01  -1.000000E+01  -1.000000E+01  -1.000000E+01  -1.000000E+01  -1.000000E+01  -1.000000E+01  -1.000000E+01  -1.000000E+01  -1.000000E+01  -1.000000E+01  -1.000000E+01  -1.000000E+01  -1.000000E+01  -1.000000E+01  -1.000000E+01  -1.000000E+01  -1.000000E+01  -1.000000E+01  -1.000000E+01  -1.000000E+01  -1.000000E+01  -1.000000E+01  -1.000000E+01  -1.000000E+01  -1.000000E+01  -1.000000E+01  -1.000000E+01  -1.000000E+01  -1.000000E+01  -1.000000E+01  -1.000000E+01  -1.000000E+01  -1.000000E+01  -1.100000E+01  -1.100000E+01  -1.100000E+01  -1.100000E+01  -1.100000E+01  -1.100000E+01
  -1.000000E+01  -1.000000E+01  -1.000000E+01  -1.000000E+01  -1.000000E+01  -1.000000E+01  -1.000000E+01  -1.000000E+01  -1.000000E+01  -1.000000E+01  -1.000000E+01  -1.000000E+01  -1.000000E+01  -1.000000E+01  -1.000000E+01  -1.000000E+01  -1.000000E+01  -1.000000E+01  -1.000000E+01  -1.000000E+01  -1.000000E+01  -1.000000E+01  -1.000000E+01  -1.000000E+01  -1.000000E+01  -1.000000E+01  -1.000000E+01  -1.000000E+01  -1.000000E+01  -1.000000E+01  -1.000000E+01  -1.000000E+01  -1.000000E+01  -1.000000E+01  -1.000000E+01  -1.000000E+01  -1.000000E+01  -1.000000E+01  -1.000000E+01  -1.000000E+01  -1.000000E+01  -1.000000E+01  -1.000000E+01  -1.000000E+01  -1.000000E+01  -1.000000E+01  -1.000000E+01  -1.000000E+01  -1.000000E+01  -1.000000E+01  -1.000000E+01  -1.000000E+01  -1.000000E+01  -1.000000E+01  -1.000000E+01  -1.000000E+01  -1.000000E+01  -1.000000E+01  -1.000000E+01  -1.000000E+01  -1.000000E+01  -1.000000E+01  -1.000000E+01  -1.000000E+01  -1.000000E+01  -1.000000E+01  -1.000000E+01  -1.000000E+01  -1.000000E+01  -1.000000E+01  -1.000000E+01  -1.000000E+01  -1.000000E+01  -1.000000E+01  -1.000000E+01  -1.000000E+01  -1.000000E+01  -1.000000E+01  -1.000000E+01  -1.000000E+01  -1.000000E+01  -1.000000E+01  -1.000000E+01  -1.000000E+01  -1.000000E+01  -1.000000E+01  -1.000000E+01  -1.000000E+01  -1.000000E+01  -1.000000E+01  -1.000000E+01  -1.000000E+01  -1.000000E+01  -1.100000E+01  -1.100000E+01  -1.100000E+01  -1.100000E+01  -1.100000E+01  -1.100000E+01  -1.100000E+01
  -1.000000E+01  -1.000000E+01  -1.000000E+01  -1.000000E+01  -1.000000E+01  -1.000000E+01  -1.000000E+01  -1.000000E+01  -1.000000E+01  -1.000000E+01  -1.000000E+01  -1.000000E+01  -1.000000E+01  -1.000000E+01  -1.000000E+01  -1.000000E+01  -1.000000E+01  -1.000000E+01  -1.000000E+01  -1.000000E+01  -1.000000E+01  -1.000000E+01  -1.000000E+01  -1.000000E+01  -1.000000E+01  -1.000000E+01  -1.000000E+01  -1.000000E+01  -1.000000E+01  -1.000000E+01  -1.000000E+01  -1.000000E+01  -1.000000E+01  -1.000000E+01  -1.000000E+01  -1.000000E+01  -1.000000E+01  -1.000000E+01  -1.000000E+01  -1.000000E+01  -1.000000E+01  -1.000000E+01  -1.000000E+01  -1.000000E+01  -1.000000E+01  -1.000000E+01  -1.000000E+01  -1.000000E+01  -1.000000E+01  -1.000000E+01  -1.000000E+01  -1.000000E+01  -1.000000E+01  -1.000000E+01  -1.000000E+01  -1.000000E+01  -1.000000E+01  -1.000000E+01  -1.000000E+01  -1.000000E+01  -1.000000E+01  -1.000000E+01  -1.000000E+01  -1.000000E+01  -1.000000E+01  -1.000000E+01  -1.000000E+01  -1.000000E+01  -1.000000E+01  -1.000000E+01  -1.000000E+01  -1.000000E+01  -1.000000E+01  -1.000000E+01  -1.000000E+01  -1.000000E+01  -1.000000E+01  -1.000000E+01  -1.000000E+01  -1.000000E+01  -1.000000E+01  -1.000000E+01  -1.000000E+01  -1.000000E+01  -1.000000E+01  -1.000000E+01  -1.000000E+01  -1.000000E+01  -1.000000E+01  -1.000000E+01  -1.000000E+01  -1.000000E+01  -1.100000E+01  -1.100000E+01  -1.100000E+01  -1.100000E+01  -1.100000E+01  -1.100000E+01  -1.100000E+01  -1.100000E+01
  -1.000000E+01  -1.000000E+01  -1.000000E+01  -1.000000E+01  -1.000000E+01  -1.000000E+01  -1.000000E+01  -1.000000E+01  -1.000000E+01  -1.000000E+01  -1.000000E+01  -1.000000E+01  -1.000000E+01  -1.000000E+01  -1.000000E+01  -1.000000E+01  -1.000000E+01  -1.000000E+01  -1.000000E+01  -1.000000E+01  -1.000000E+01  -1.000000E+01  -1.000000E+01  -1.000000E+01  -1.000000E+01  -1.000000E+01  -1.000000E+01  -1.000000E+01  -1.000000E+01  -1.000000E+01  -1.000000E+01  -1.000000E+01  -1.000000E+01  -1.000000E+01  -1.000000E+01  -1.000000E+01  -1.000000E+01  -1.000000E+01  -1.000000E+01  -1.000000E+01  -1.000000E+01  -1.000000E+01  -1.000000E+01  -1.000000E+01  -1.000000E+01  -1.000000E+01  -1.000000E+01  -1.000000E+01  -1.000000E+01  -1.000000E+01  -1.000000E+01  -1.000000E+01  -1.000000E+01  -1.000000E+01  -1.000000E+01  -1.000000E+01  -1.000000E+01  -1.000000E+01  -1.000000E+01  -1.000000E+01  -1.000000E+01  -1.000000E+01  -1.000000E+01  -1.000000E+01  -1.000000E+01  -1.000000E+01  -1.000000E+01  -1.000000E+01  -1.000000E+01  -1.000000E+01  -1.000000E+01  -1.000000E+01  -1.000000E+01  -1.000000E+01  -1.000000E+01  -1.000000E+01  -1.000000E+01  -1.000000E+01  -1.000000E+01  -1.000000E+01  -1.000000E+01  -1.000000E+01  -1.000000E+01  -1.000000E+01  -1.000000E+01  -1.000000E+01  -1.000000E+01  -1.000000E+01  -1.000000E+01  -1.000000E+01  -1.100000E+01  -1.100000E+01  -1.100000E+01  -1.100000E+01  -1.100000E+01  -1.100000E+01  -1.100000E+01  -1.100000E+01  -1.100000E+01  -1.100000E+01
  -1.000000E+01  -1.000000E+01  -1.000000E+01  -1.000000E+01  -1.000000E+01  -1.000000E+01  -1.000000E+01  -1.000000E+01  -1.000000E+01  -1.000000E+01  -1.000000E+01  -1.000000E+01  -1.000000E+01  -1.000000E+01  -1.000000E+01  -1.000000E+01  -1.000000E+01  -1.000000E+01  -1.000000E+01  -1.000000E+01  -1.000000E+01  -1.000000E+01  -1.000000E+01  -1.000000E+01  -1.000000E+01  -1.000000E+01  -1.000000E+01  -1.000000E+01  -1.000000E+01  -1.000000E+01  -1.000000E+01  -1.000000E+01  -1.000000E+01  -1.000000E+01  -1.000000E+01  -1.000000E+01  -1.000000E+01  -1.000000E+01  -1.000000E+01  -1.000000E+01  -1.000000E+01  -1.000000E+01  -1.000000E+01  -1.000000E+01  -1.000000E+01  -1.000000E+01  -1.000000E+01  -1.000000E+01  -1.000000E+01  -1.000000E+01  -1.000000E+01  -1.000000E+01  -1.000000E+01  -1.000000E+01  -1.000000E+01  -1.000000E+01  -1.000000E+01  -1.000000E+01  -1.000000E+01  -1.000000E+01  -1.000000E+01  -1.000000E+01  -1.000000E+01  -1.000000E+01  -1.000000E+01  -1.000000E+01  -1.000000E+01  -1.000000E+01  -1.000000E+01  -1.000000E+01  -1.000000E+01  -1.000000E+01  -1.000000E+01  -1.000000E+01  -1.000000E+01  -1.000000E+01  -1.000000E+01  -1.000000E+01  -1.000000E+01  -1.000000E+01  -1.000000E+01  -1.000000E+01  -1.000000E+01  -1.000000E+01  -1.000000E+01  -1.000000E+01  -1.000000E+01  -1.000000E+01  -1.000000E+01  -1.100000E+01  -1.100000E+01  -1.100000E+01  -1.100000E+01  -1.100000E+01  -1.100000E+01  -1.100000E+01  -1.100000E+01  -1.100000E+01  -1.100000E+01  -1.100000E+01
  -1.000000E+01  -1.000000E+01  -1.000000E+01  -1.000000E+01  -1.000000E+01  -1.000000E+01  -1.000000E+01  -1.000000E+01  -1.000000E+01  -1.000000E+01  -1.000000E+01  -1.000000E+01  -1.000000E+01  -1.000000E+01  -1.000000E+01  -1.000000E+01  -1.000000E+01  -1.000000E+01  -1.000000E+01  -1.000000E+01  -1.000000E+01  -1.000000E+01  -1.000000E+01  -1.000000E+01  -1.000000E+01  -1.000000E+01  -1.000000E+01  -1.000000E+01  -1.000000E+01  -1.000000E+01  -1.000000E+01  -1.000000E+01  -1.000000E+01  -1.000000E+01  -1.000000E+01  -1.000000E+01  -1.000000E+01  -1.000000E+01  -1.000000E+01  -1.000000E+01  -1.000000E+01  -1.000000E+01  -1.000000E+01  -1.000000E+01  -1.000000E+01  -1.000000E+01  -1.000000E+01  -1.000000E+01  -1.000000E+01  -1.000000E+01  -1.000000E+01  -1.000000E+01  -1.000000E+01  -1.000000E+01  -1.000000E+01  -1.000000E+01  -1.000000E+01  -1.000000E+01  -1.000000E+01  -1.000000E+01  -1.000000E+01  -1.000000E+01  -1.000000E+01  -1.000000E+01  -1.000000E+01  -1.000000E+01  -1.000000E+01  -1.000000E+01  -1.000000E+01  -1.000000E+01  -1.000000E+01  -1.000000E+01  -1.000000E+01  -1.000000E+01  -1.000000E+01  -1.000000E+01  -1.000000E+01  -1.000000E+01  -1.000000E+01  -1.000000E+01  -1.000000E+01  -1.000000E+01  -1.000000E+01  -1.000000E+01  -1.000000E+01  -1.000000E+01  -1.000000E+01  -1.100000E+01  -1.100000E+01  -1.100000E+01  -1.100000E+01  -1.100000E+01  -1.100000E+01  -1.100000E+01  -1.100000E+01  -1.100000E+01  -1.100000E+01  -1.100000E+01  -1.100000E+01  -1.100000E+01
  -1.000000E+01  -1.000000E+01  -1.000000E+01  -1.000000E+01  -1.000000E+01  -1.000000E+01  -1.000000E+01  -1.000000E+01  -1.000000E+01  -1.000000E+01  -1.000000E+01  -1.000000E+01  -1.000000E+01  -1.000000E+01  -1.000000E+01  -1.000000E+01  -1.000000E+01  -1.000000E+01  -1.000000E+01  -1.000000E+01  -1.000000E+01  -1.000000E+01  -1.000000E+01  -1.000000E+01  -1.000000E+01  -1.000000E+01  -1.000000E+01  -1.000000E+01  -1.000000E+01  -1.000000E+01  -1.000000E+01  -1.000000E+01  -1.000000E+01  -1.000000E+01  -1.000000E+01  -1.000000E+01  -1.000000E+01  -1.000000E+01  -1.000000E+01  -1.000000E+01  -1.000000E+01  -1.000000E+01  -1.000000E+01  -1.000000E+01  -1.000000E+01  -1.000000E+01  -1.000000E+01  -1.000000E+01  -1.000000E+01  -1.000000E+01  -1.000000E+01  -1.000000E+01  -1.000000E+01  -1.000000E+01  -1.000000E+01  -1.000000E+01  -1.000000E+01  -1.000000E+01  -1.000000E+01  -1.000000E+01  -1.000000E+01  -1.000000E+01  -1.000000E+01  -1.000000E+01  -1.000000E+01  -1.000000E+01  -1.000000E+01  -1.000000E+01  -1.000000E+01  -1.000000E+01  -1.000000E+01  -1.000000E+01  -1.000000E+01  -1.000000E+01  -1.000000E+01  -1.000000E+01  -1.000000E+01  -1.000000E+01  -1.000000E+01  -1.000000E+01  -1.000000E+01  -1.000000E+01  -1.000000E+01  -1.000000E+01  -1.000000E+01  -1.000000E+01  -1.100000E+01  -1.100000E+01  -1.100000E+01  -1.100000E+01  -1.100000E+01  -1.100000E+01  -1.100000E+01  -1.100000E+01  -1.100000E+01  -1.100000E+01  -1.100000E+01  -1.100000E+01  -1.100000E+01  -1.100000E+01
  -1.000000E+01  -1.000000E+01  -1.000000E+01  -1.000000E+01  -1.000000E+01  -1.000000E+01  -1.000000E+01  -1.000000E+01  -1.000000E+01  -1.000000E+01  -1.000000E+01  -1.000000E+01  -1.000000E+01  -1.000000E+01  -1.000000E+01  -1.000000E+01  -1.000000E+01  -1.000000E+01  -1.000000E+01  -1.000000E+01  -1.000000E+01  -1.000000E+01  -1.000000E+01  -1.000000E+01  -1.000000E+01  -1.000000E+01  -1.000000E+01  -1.000000E+01  -1.000000E+01  -1.000000E+01  -1.000000E+01  -1.000000E+01  -1.000000E+01  -1.000000E+01  -1.000000E+01  -1.000000E+01  -1.000000E+01  -1.000000E+01  -1.000000E+01  -1.000000E+01  -1.000000E+01  -1.000000E+01  -1.000000E+01  -1.000000E+01  -1.000000E+01  -1.000000E+01  -1.000000E+01  -1.000000E+01  -1.000000E+01  -1.000000E+01  -1.000000E+01  -1.000000E+01  -1.000000E+01  -1.000000E+01  -1.000000E+01  -1.000000E+01  -1.000000E+01  -1.000000E+01  -1.000000E+01  -1.000000E+01  -1.000000E+01  -1.000000E+01  -1.000000E+01  -1.000000E+01  -1.000000E+01  -1.000000E+01  -1.000000E+01  -1.000000E+01  -1.000000E+01  -1.000000E+01  -1.000000E+01  -1.000000E+01  -1.000000E+01  -1.000000E+01  -1.000000E+01  -1.000000E+01  -1.000000E+01  -1.000000E+01  -1.000000E+01  -1.000000E+01  -1.000000E+01  -1.000000E+01  -1.000000E+01  -1.000000E+01  -1.100000E+01  -1.100000E+01  -1.100000E+01  -1.100000E+01  -1.100000E+01  -1.100000E+01  -1.100000E+01  -1.100000E+01  -1.100000E+01  -1.100000E+01  -1.100000E+01  -1.100000E+01  -1.100000E+01  -1.100000E+01  -1.100000E+01  -1.100000E+01
  -1.000000E+01  -1.000000E+01  -1.000000E+01  -1.000000E+01  -1.000000E+01  -1.000000E+01  -1.000000E+01  -1.000000E+01  -1.000000E+01  -1.000000E+01  -1.000000E+01  -1.000000E+01  -1.000000E+01  -1.000000E+01  -1.000000E+01  -1.000000E+01  -1.000000E+01  -1.000000E+01  -1.000000E+01  -1.000000E+01  -1.000000E+01  -1.000000E+01  -1.000000E+01  -1.000000E+01  -1.000000E+01  -1.000000E+01  -1.000000E+01  -1.000000E+01  -1.000000E+01  -1.000000E+01  -1.000000E+01  -1.000000E+01  -1.000000E+01  -1.000000E+01  -1.000000E+01  -1.000000E+01  -1.000000E+01  -1.000000E+01  -1.000000E+01  -1.000000E+01  -1.000000E+01  -1.000000E+01  -1.000000E+01  -1.000000E+01  -1.000000E+01  -1.000000E+01  -1.000000E+01  -1.000000E+01  -1.000000E+01  -1.000000E+01  -1.000000E+01  -1.000000E+01  -1.000000E+01  -1.000000E+01  -1.000000E+01  -1.000000E+01  -1.000000E+01  -1.000000E+01  -1.000000E+01  -1.000000E+01  -1.000000E+01  -1.000000E+01  -1.000000E+01  -1.000000E+01  -1.000000E+01  -1.000000E+01  -1.000000E+01  -1.000000E+01  -1.000000E+01  -1.000000E+01  -1.000000E+01  -1.000000E+01  -1.000000E+01  -1.000000E+01  -1.000000E+01  -1.000000E+01  -1.000000E+01  -1.000000E+01  -1.000000E+01  -1.000000E+01  -1.000000E+01  -1.000000E+01  -1.100000E+01  -1.100000E+01  -1.100000E+01  -1.100000E+01  -1.100000E+01  -1.100000E+01  -1.100000E+01  -1.100000E+01  -1.100000E+01  -1.100000E+01  -1.100000E+01  -1.100000E+01  -1.000000E+01  -1.000000E+01  -1.000000E+01  -1.000000E+01  -1.000000E+01  -1.000000E+01
  -1.000000E+01  -1.000000E+01  -1.000000E+01  -1.000000E+01  -1.000000E+01  -1.000000E+01  -1.000000E+01  -1.000000E+01  -1.000000E+01  -1.000000E+01  -1.000000E+01  -1.000000E+01  -1.000000E+01  -1.000000E+01  -1.000000E+01  -1.000000E+01  -1.000000E+01  -1.000000E+01  -1.000000E+01  -1.000000E+01  -1.000000E+01  -1.000000E+01  -1.000000E+01  -1.000000E+01  -1.000000E+01  -1.000000E+01  -1.000000E+01  -1.000000E+01  -1.000000E+01  -1.000000E+01  -1.000000E+01  -1.000000E+01  -1.000000E+01  -1.000000E+01  -1.000000E+01  -1.000000E+01  -1.000000E+01  -1.000000E+01  -1.000000E+01  -1.000000E+01  -1.000000E+01  -1.000000E+01  -1.000000E+01  -1.000000E+01  -1.000000E+01  -1.000000E+01  -1.000000E+01  -1.000000E+01  -1.000000E+01  -1.000000E+01  -1.000000E+01  -1.000000E+01  -1.000000E+01  -1.000000E+01  -1.000000E+01  -1.000000E+01  -1.000000E+01  -1.000000E+01  -1.000000E+01  -1.000000E+01  -1.000000E+01  -1.000000E+01  -1.000000E+01  -1.000000E+01  -1.000000E+01  -1.000000E+01  -1.000000E+01  -1.000000E+01  -1.000000E+01  -1.000000E+01  -1.000000E+01  -1.000000E+01  -1.000000E+01  -1.000000E+01  -1.000000E+01  -1.000000E+01  -1.000000E+01  -1.000000E+01  -1.000000E+01  -1.000000E+01  -1.100000E+01  -1.100000E+01  -1.100000E+01  -1.100000E+01  -1.100000E+01  -1.100000E+01  -1.100000E+01  -1.100000E+01  -1.100000E+01  -1.100000E+01  -1.100000E+01  -1.100000E+01  -1.100000E+01  -1.000000E+01  -1.000000E+01  -1.000000E+01  -1.000000E+01  -1.000000E+01  -1.000000E+01  -1.000000E+01
  -1.000000E+01  -1.000000E+01  -1.000000E+01  -1.000000E+01  -1.000000E+01  -1.000000E+01  -1.000000E+01  -1.000000E+01  -1.000000E+01  -1.000000E+01  -1.000000E+01  -1.000000E+01  -1.000000E+01  -1.000000E+01  -1.000000E+01  -1.000000E+01  -1.000000E+01  -1.000000E+01  -1.000000E+01  -1.000000E+01  -1.000000E+01  -1.000000E+01  -1.000000E+01  -1.000000E+01  -1.000000E+01  -1.000000E+01  -1.000000E+01  -1.000000E+01  -1.000000E+01  -1.000000E+01  -1.000000E+01  -1.000000E+01  -1.000000E+01  -1.000000E+01  -1.000000E+01  -1.000000E+01  -1.000000E+01  -1.000000E+01  -1.000000E+01  -1.000000E+01  -1.000000E+01  -1.000000E+01  -1.000000E+01  -1.000000E+01  -1.000000E+01  -1.000000E+01  -1.000000E+01  -1.000000E+01  -1.000000E+01  -1.000000E+01  -1.000000E+01  -1.000000E+01  -1.000000E+01  -1.000000E+01  -1.000000E+01  -1.000000E+01  -1.000000E+01  -1.000000E+01  -1.000000E+01  -1.000000E+01  -1.000000E+01  -1.000000E+01  -1.000000E+01  -1.000000E+01  -1.000000E+01  -1.000000E+01  -1.000000E+01  -1.000000E+01  -1.000000E+01  -1.000000E+01  -1.000000E+01  -1.000000E+01  -1.000000E+01  -1.000000E+01  -1.000000E+01  -1.000000E+01  -1.000000E+01  -1.100000E+01  -1.100000E+01  -1.100000E+01  -1.100000E+01  -1.100000E+01  -1.100000E+01  -1.100000E+01  -1.100000E+01  -1.100000E+01  -1.100000E+01  -1.100000E+01  -1.100000E+01  -1.100000E+01  -1.100000E+01  -1.100000E+01  -1.000000E+01  -1.000000E+01  -1.000000E+01  -1.000000E+01  -1.000000E+01  -1.000000E+01  -1.000000E+01  -1.000000E+01
  -1.000000E+01  -1.000000E+01  -1.000000E+01  -1.000000E+01  -1.000000E+01  -1.000000E+01  -1.000000E+01  -1.000000E+01  -1.000000E+01  -1.000000E+01  -1.000000E+01  -1.000000E+01  -1.000000E+01  -1.000000E+01  -1.000000E+01  -1.000000E+01  -1.000000E+01  -1.000000E+01  -1.000000E+01  -1.000000E+01  -1.000000E+01  -1.000000E+01  -1.000000E+01  -1.000000E+01  -1.000000E+01  -1.000000E+01  -1.000000E+01  -1.000000E+01  -1.000000E+01  -1.000000E+01  -1.000000E+01  -1.000000E+01  -1.000000E+01  -1.000000E+01  -1.000000E+01  -1.000000E+01  -1.000000E+01  -1.000000E+01  -1.000000E+01  -1.000000E+01  -1.000000E+01  -1.000000E+01  -1.000000E+01  -1.000000E+01  -1.000000E+01  -1.000000E+01  -1.000000E+01  -1.000000E+01  -1.000000E+01  -1.000000E+01  -1.000000E+01  -1.000000E+01  -1.000000E+01  -1.000000E+01  -1.000000E+01  -1.000000E+01  -1.000000E+01  -1.000000E+01  -1.000000E+01  -1.000000E+01  -1.000000E+01  -1.000000E+01  -1.000000E+01  -1.000000E+01  -1.000000E+01  -1.000000E+01  -1.000000E+01  -1.000000E+01  -1.000000E+01  -1.000000E+01  -1.000000E+01  -1.000000E+01  -1.000000E+01  -1.000000E+01  -1.000000E+01  -1.100000E+01  -1.100000E+01  -1.100000E+01  -1.100000E+01  -1.100000E+01  -1.100000E+01  -1.100000E+01  -1.100000E+01  -1.100000E+01  -1.100000E+01  -1.100000E+01  -1.100000E+01  -1.100000E+01  -1.100000E+01  -1.100000E+01  -1.000000E+01  -1.000000E+01  -1.000000E+01  -1.000000E+01  -1.000000E+01  -1.000000E+01  -1.000000E+01  -1.000000E+01  -1.000000E+01  -1.000000E+01